Input Parameters:
   integrator                     = sd
   tinit                          = 0
   dt                             = 0.002
   nsteps                         = 100000
   init-step                      = 0
   simulation-part                = 1
   mts                            = false
   comm-mode                      = Linear
   nstcomm                        = 100
   bd-fric                        = 0
   ld-seed                        = -136709701
   emtol                          = 10
   emstep                         = 0.01
   niter                          = 20
   fcstep                         = 0
   nstcgsteep                     = 1000
   nbfgscorr                      = 10
   rtpi                           = 0.05
   nstxout                        = 1000
   nstvout                        = 1000
   nstfout                        = 1000
   nstlog                         = 1000
   nstcalcenergy                  = 50
   nstenergy                      = 1000
   nstxout-compressed             = 1000
   compressed-x-precision         = 1000
   cutoff-scheme                  = Verlet
   nstlist                        = 10
   pbc                            = xyz
   periodic-molecules             = false
   verlet-buffer-tolerance        = 0.005
   rlist                          = 1.1
   coulombtype                    = PME
   coulomb-modifier               = Potential-shift
   rcoulomb-switch                = 0
   rcoulomb                       = 1.1
   epsilon-r                      = 1
   epsilon-rf                     = inf
   vdw-type                       = Cut-off
   vdw-modifier                   = Potential-shift
   rvdw-switch                    = 0
   rvdw                           = 1.1
   DispCorr                       = No
   table-extension                = 1
   fourierspacing                 = 0.13
   fourier-nx                     = 28
   fourier-ny                     = 28
   fourier-nz                     = 28
   pme-order                      = 4
   ewald-rtol                     = 1e-05
   ewald-rtol-lj                  = 0.001
   lj-pme-comb-rule               = Geometric
   ewald-geometry                 = 3d
   epsilon-surface                = 0
   tcoupl                         = No
   nsttcouple                     = -1
   nh-chain-length                = 0
   print-nose-hoover-chain-variables = false
   pcoupl                         = C-rescale
   pcoupltype                     = Isotropic
   nstpcouple                     = 10
   tau-p                          = 5
   compressibility (3x3):
      compressibility[    0]={ 4.50000e-05,  0.00000e+00,  0.00000e+00}
      compressibility[    1]={ 0.00000e+00,  4.50000e-05,  0.00000e+00}
      compressibility[    2]={ 0.00000e+00,  0.00000e+00,  4.50000e-05}
   ref-p (3x3):
      ref-p[    0]={ 1.00000e+00,  0.00000e+00,  0.00000e+00}
      ref-p[    1]={ 0.00000e+00,  1.00000e+00,  0.00000e+00}
      ref-p[    2]={ 0.00000e+00,  0.00000e+00,  1.00000e+00}
   refcoord-scaling               = No
   posres-com (3):
      posres-com[0]= 0.00000e+00
      posres-com[1]= 0.00000e+00
      posres-com[2]= 0.00000e+00
   posres-comB (3):
      posres-comB[0]= 0.00000e+00
      posres-comB[1]= 0.00000e+00
      posres-comB[2]= 0.00000e+00
   QMMM                           = false
qm-opts:
   ngQM                           = 0
   constraint-algorithm           = Lincs
   continuation                   = false
   Shake-SOR                      = false
   shake-tol                      = 0.0001
   lincs-order                    = 4
   lincs-iter                     = 1
   lincs-warnangle                = 30
   nwall                          = 0
   wall-type                      = 9-3
   wall-r-linpot                  = -1
   wall-atomtype[0]               = -1
   wall-atomtype[1]               = -1
   wall-density[0]                = 0
   wall-density[1]                = 0
   wall-ewald-zfac                = 3
   pull                           = false
   awh                            = false
   rotation                       = false
   interactiveMD                  = false
   disre                          = No
   disre-weighting                = Conservative
   disre-mixed                    = false
   dr-fc                          = 1000
   dr-tau                         = 0
   nstdisreout                    = 100
   orire-fc                       = 0
   orire-tau                      = 0
   nstorireout                    = 100
   free-energy                    = yes
   init-lambda                    = -1
   init-lambda-state              = 8
   delta-lambda                   = 0
   nstdhdl                        = 50
   n-lambdas                      = 53
   separate-dvdl:
       fep-lambdas =   TRUE
      mass-lambdas =   FALSE
      coul-lambdas =   FALSE
       vdw-lambdas =   FALSE
    bonded-lambdas =   FALSE
 restraint-lambdas =   FALSE
temperature-lambdas =   FALSE
all-lambdas:
       fep-lambdas =            0         0.1         0.2         0.3         0.4         0.5       0.525     0.53125      0.5375     0.54375        0.55     0.55625      0.5625     0.56875       0.575     0.58125      0.5875     0.59375         0.6     0.60625      0.6125     0.61875       0.625     0.63125      0.6375     0.64375        0.65     0.65625      0.6625     0.66875       0.675     0.68125      0.6875     0.69375         0.7     0.70625      0.7125     0.71875       0.725        0.75       0.775         0.8       0.825        0.85       0.875         0.9       0.925      0.9375        0.95      0.9625       0.975      0.9875           1
      mass-lambdas =            0         0.1         0.2         0.3         0.4         0.5       0.525     0.53125      0.5375     0.54375        0.55     0.55625      0.5625     0.56875       0.575     0.58125      0.5875     0.59375         0.6     0.60625      0.6125     0.61875       0.625     0.63125      0.6375     0.64375        0.65     0.65625      0.6625     0.66875       0.675     0.68125      0.6875     0.69375         0.7     0.70625      0.7125     0.71875       0.725        0.75       0.775         0.8       0.825        0.85       0.875         0.9       0.925      0.9375        0.95      0.9625       0.975      0.9875           1
      coul-lambdas =            0         0.1         0.2         0.3         0.4         0.5       0.525     0.53125      0.5375     0.54375        0.55     0.55625      0.5625     0.56875       0.575     0.58125      0.5875     0.59375         0.6     0.60625      0.6125     0.61875       0.625     0.63125      0.6375     0.64375        0.65     0.65625      0.6625     0.66875       0.675     0.68125      0.6875     0.69375         0.7     0.70625      0.7125     0.71875       0.725        0.75       0.775         0.8       0.825        0.85       0.875         0.9       0.925      0.9375        0.95      0.9625       0.975      0.9875           1
       vdw-lambdas =            0         0.1         0.2         0.3         0.4         0.5       0.525     0.53125      0.5375     0.54375        0.55     0.55625      0.5625     0.56875       0.575     0.58125      0.5875     0.59375         0.6     0.60625      0.6125     0.61875       0.625     0.63125      0.6375     0.64375        0.65     0.65625      0.6625     0.66875       0.675     0.68125      0.6875     0.69375         0.7     0.70625      0.7125     0.71875       0.725        0.75       0.775         0.8       0.825        0.85       0.875         0.9       0.925      0.9375        0.95      0.9625       0.975      0.9875           1
    bonded-lambdas =            0         0.1         0.2         0.3         0.4         0.5       0.525     0.53125      0.5375     0.54375        0.55     0.55625      0.5625     0.56875       0.575     0.58125      0.5875     0.59375         0.6     0.60625      0.6125     0.61875       0.625     0.63125      0.6375     0.64375        0.65     0.65625      0.6625     0.66875       0.675     0.68125      0.6875     0.69375         0.7     0.70625      0.7125     0.71875       0.725        0.75       0.775         0.8       0.825        0.85       0.875         0.9       0.925      0.9375        0.95      0.9625       0.975      0.9875           1
 restraint-lambdas =            0         0.1         0.2         0.3         0.4         0.5       0.525     0.53125      0.5375     0.54375        0.55     0.55625      0.5625     0.56875       0.575     0.58125      0.5875     0.59375         0.6     0.60625      0.6125     0.61875       0.625     0.63125      0.6375     0.64375        0.65     0.65625      0.6625     0.66875       0.675     0.68125      0.6875     0.69375         0.7     0.70625      0.7125     0.71875       0.725        0.75       0.775         0.8       0.825        0.85       0.875         0.9       0.925      0.9375        0.95      0.9625       0.975      0.9875           1
temperature-lambdas =            0         0.1         0.2         0.3         0.4         0.5       0.525     0.53125      0.5375     0.54375        0.55     0.55625      0.5625     0.56875       0.575     0.58125      0.5875     0.59375         0.6     0.60625      0.6125     0.61875       0.625     0.63125      0.6375     0.64375        0.65     0.65625      0.6625     0.66875       0.675     0.68125      0.6875     0.69375         0.7     0.70625      0.7125     0.71875       0.725        0.75       0.775         0.8       0.825        0.85       0.875         0.9       0.925      0.9375        0.95      0.9625       0.975      0.9875           1
   calc-lambda-neighbors          = -1
   dhdl-print-energy              = potential
   sc-alpha                       = 1
   sc-power                       = 1
   sc-r-power                     = 6
   sc-sigma                       = 0.3
   sc-sigma-min                   = 0.3
   sc-coul                        = true
   dh-hist-size                   = 0
   dh-hist-spacing                = 0.1
   separate-dhdl-file             = yes
   dhdl-derivatives               = yes
   sc-function                    = beutler
   sc-gapsys-scale-linpoint-lj    = 0.85
   sc-gapsys-scale-linpoint-q     = 0.3
   sc-gapsys-sigma-lj             = 0.3
   cos-acceleration               = 0
   deform (3x3):
      deform[    0]={ 0.00000e+00,  0.00000e+00,  0.00000e+00}
      deform[    1]={ 0.00000e+00,  0.00000e+00,  0.00000e+00}
      deform[    2]={ 0.00000e+00,  0.00000e+00,  0.00000e+00}
   simulated-tempering            = false
   swapcoords                     = no
   userint1                       = 0
   userint2                       = 0
   userint3                       = 0
   userint4                       = 0
   userreal1                      = 0
   userreal2                      = 0
   userreal3                      = 0
   userreal4                      = 0
   applied-forces:
     electric-field:
       x:
         E0                       = 0
         omega                    = 0
         t0                       = 0
         sigma                    = 0
       y:
         E0                       = 0
         omega                    = 0
         t0                       = 0
         sigma                    = 0
       z:
         E0                       = 0
         omega                    = 0
         t0                       = 0
         sigma                    = 0
     density-guided-simulation:
       active                     = false
       group                      = protein
       similarity-measure         = inner-product
       atom-spreading-weight      = unity
       force-constant             = 1e+09
       gaussian-transform-spreading-width = 0.2
       gaussian-transform-spreading-range-in-multiples-of-width = 4
       reference-density-filename = reference.mrc
       nst                        = 1
       normalize-densities        = true
       adaptive-force-scaling     = false
       adaptive-force-scaling-time-constant = 4
       shift-vector               =
       transformation-matrix      =
     qmmm-cp2k:
       active                     = false
       qmgroup                    = System
       qmmethod                   = PBE
       qmfilenames                =
       qmcharge                   = 0
       qmmultiplicity             = 1
grpopts:
   nrdf:        6053
   ref-t:         300
   tau-t:           2
annealing:          No
annealing-npoints:           0
   acc:	           0           0           0
   nfreeze:           N           N           N
   energygrp-flags[  0]: 0

Changing nstlist from 10 to 50, rlist from 1.1 to 1.207

When checking whether update groups are usable:
  At least one moleculetype does not conform to the requirements for using update groups

Initializing Domain Decomposition on 1 ranks
Dynamic load balancing: auto
Minimum cell size due to atom displacement: 0.441 nm
Initial maximum distances in bonded interactions:
    two-body bonded interactions: 0.923 nm, LJC Pairs NB, atoms 13 20
  multi-body bonded interactions: 0.379 nm, Proper Dih., atoms 4 9
Minimum cell size due to bonded interactions: 0.416 nm
Maximum distance for 5 constraints, at 120 deg. angles, all-trans: 0.109 nm
Estimated maximum distance required for P-LINCS: 0.109 nm
Using 0 separate PME ranks because: there are too few total ranks for efficient splitting
Optimizing the DD grid for 1 cells with a minimum initial size of 0.441 nm
The maximum allowed number of cells is: X 6 Y 6 Z 5
Domain decomposition grid 1 x 1 x 1, separate PME ranks 0
PME domain decomposition: 1 x 1 x 1

The initial number of communication pulses is:
The initial domain decomposition cell size is:

The maximum allowed distance for atoms involved in interactions is:
                 non-bonded interactions           1.207 nm
(the following are initial values, they could change due to box deformation)
            two-body bonded interactions  (-rdd)   1.207 nm
          multi-body bonded interactions  (-rdd)   1.207 nm
  atoms separated by up to 5 constraints  (-rcon)  2.471 nm

When dynamic load balancing gets turned on, these settings will change to:
The maximum number of communication pulses is:
The minimum size for domain decomposition cells is 1.207 nm
The requested allowed shrink of DD cells (option -dds) is: 0.80
The allowed shrink of domain decomposition cells is:
The maximum allowed distance for atoms involved in interactions is:
                 non-bonded interactions           1.207 nm
            two-body bonded interactions  (-rdd)   1.207 nm
          multi-body bonded interactions  (-rdd)   1.207 nm
  atoms separated by up to 5 constraints  (-rcon)  1.207 nm

Using 1 MPI thread

Non-default thread affinity set, disabling internal thread affinity

Using 1 OpenMP thread

System total charge, top. A: 0.000 top. B: 0.000
Will do PME sum in reciprocal space for electrostatic interactions.

Using a Gaussian width (1/beta) of 0.352179 nm for Ewald
Potential shift: LJ r^-12: -3.186e-01 r^-6: -5.645e-01, Ewald -9.091e-06
Initialized non-bonded Coulomb Ewald tables, spacing: 9.79e-04 size: 2257

Generated table with 1103 data points for 1-4 COUL.
Tabscale = 500 points/nm
Generated table with 1103 data points for 1-4 LJ6.
Tabscale = 500 points/nm
Generated table with 1103 data points for 1-4 LJ12.
Tabscale = 500 points/nm

Using SIMD 4x8 nonbonded short-range kernels

Using a dual 4x8 pair-list setup updated with dynamic pruning:
  outer list: updated every 50 steps, buffer 0.107 nm, rlist 1.207 nm
  inner list: updated every 12 steps, buffer 0.002 nm, rlist 1.102 nm
At tolerance 0.005 kJ/mol/ps per atom, equivalent classical 1x1 list would be:
  outer list: updated every 50 steps, buffer 0.235 nm, rlist 1.335 nm
  inner list: updated every 12 steps, buffer 0.047 nm, rlist 1.147 nm

Using Lorentz-Berthelot Lennard-Jones combination rule
There are 22 atoms and 22 charges for free energy perturbation
Removing pbc first time

Linking all bonded interactions to atoms

Initializing Parallel LINear Constraint Solver

The number of constraints is 10
There are constraints between atoms in different decomposition domains,
will communicate selected coordinates each lincs iteration

Initial vector of lambda components:[     0.5375     0.5375     0.5375     0.5375     0.5375     0.5375     0.5375 ]

There are: 3022 Atoms

Atom distribution over 1 domains: av 3022 stddev 0 min 3022 max 3022

Constraining the starting coordinates (step 0)

Constraining the coordinates at t0-dt (step 0)
Center of mass motion removal mode is Linear
We have the following groups for center of mass motion removal:
  0:  rest
RMS relative constraint deviation after constraining: 3.21e-07
Initial temperature: 299.898 K

Started mdrun on rank 0 Tue Feb 20 09:34:44 2024

           Step           Time
              0        0.00000

   Energies (kJ/mol)
           Bond          Angle    Proper Dih. Per. Imp. Dih.          LJ-14
    1.54087e+01    1.39633e+02    4.55488e+01    4.87732e-01    5.49221e+01
     Coulomb-14        LJ (SR)   Coulomb (SR)   Coul. recip.      Potential
    1.55497e+01    7.46937e+03   -5.16413e+04    1.54445e+02   -4.37460e+04
    Kinetic En.   Total Energy    Temperature Pressure (bar)    dVremain/dl
    7.55522e+03   -3.61907e+04    3.00242e+02   -6.68256e+01   -1.21125e+02
    6.66667e-07

	<====  A V E R A G E S  ====>

	Statistics over 100001 steps using 2001 frames

   Energies (kJ/mol)
           Bond          Angle    Proper Dih. Per. Imp. Dih.          LJ-14
    2.00224e+01    1.52154e+02    3.23727e+01    4.79154e-01    4.89523e+01
     Coulomb-14        LJ (SR)   Coulomb (SR)   Coul. recip.      Potential
    1.59093e+01    7.53976e+03   -5.17002e+04    1.75920e+02   -4.37146e+04
    Kinetic En.   Total Energy    Temperature Pressure (bar)    dVremain/dl
    7.54828e+03   -3.61664e+04    2.99967e+02   -2.91825e+01    2.72529e+02
   Constr. rmsd
    0.00000e+00

          Box-X          Box-Y          Box-Z
    3.48524e+00    3.48524e+00    2.46443e+00

   Total Virial (kJ/mol)
    2.53301e+03    3.20658e+00    9.48978e-02
    3.20123e+00    2.54383e+03    3.37611e+00
    9.14620e-02    3.37448e+00    2.55359e+03

   Pressure (bar)
   -1.82157e+01   -7.42447e-01   -3.17696e-01
   -7.36512e-01   -2.89305e+01   -4.46802e+00
   -3.13874e-01   -4.46620e+00   -4.04013e+01
